Version 4
SHEET 1 880 680
FLAG -32 208 0
FLAG -32 128 acp
FLAG 160 208 0
FLAG 160 128 acn
SYMBOL voltage -32 112 R0
SYMATTR InstName V1
SYMBOL voltage 160 112 R0
SYMATTR InstName V2
